network = NetworkSimulation2
**.ospf.ospfConfig = xmldoc("config.xml")
sim-time-limit      = 3600s
**.host*.app[*].typename = "UdpBasicBurst"
**.host*.app[*].chooseDestAddrMode = "once"
**.fifo[*].queueLength.result-recording-modes = +vector
**.router*.ppp[*].queue.typename  = "inet.examples.inet.netperfmeter.REDQueue" 
**.router*.ppp[*].queue.packetCapacity = 10

**.host*.app[0].destPort = 1000
**.host*.app[1].destPort = 1001
**.host*.app[2].destPort = 1002
**.host*.app[3].destPort = 1003
**.host*.app[4].destPort = 1004
**.host*.app[5].destPort = 1005
**.host*.app[6].destPort = 1006
**.host*.app[0].localPort = 1000
**.host*.app[1].localPort = 1001
**.host*.app[2].localPort = 1002
**.host*.app[3].localPort = 1003
**.host*.app[4].localPort = 1004
**.host*.app[5].localPort = 1005
**.host*.app[6].localPort = 1006

*.host4.numApps = 2
*.host4.app[0].typename = "UdpBasicBurst"
*.host4.app[0].destAddresses = "host2"
*.host4.app[0].datarate = 200000000
*.host4.app[0].messageLength = 1000B
*.host4.app[0].tos = 1
*.host4.app[0].sendInterval = 1s
*.host4.app[0].sleepDuration = 0s
*.host4.app[0].burstDuration = 0s


*.host4.app[1].typename = "UdpBasicBurst"
*.host4.app[1].destAddresses = "host3"
*.host4.app[1].datarate = 200000000
*.host4.app[1].messageLength = 1000B
*.host4.app[1].tos = 1
*.host4.app[1].sendInterval = 1s
*.host4.app[1].sleepDuration = 0s
*.host4.app[1].burstDuration = 0s


