network = NetworkSimulation2
**.ospf.ospfConfig = xmldoc("config.xml")
sim-time-limit      = 3600s
**.host*.app[*].typename = "UdpBasicBurst"
**.host*.app[*].chooseDestAddrMode = "once"
**.fifo[*].queueLength.result-recording-modes = +vector
**.router*.ppp[*].queue.typename  = "inet.examples.inet.netperfmeter.REDQueue" 
**.queue.numQueues = 2
**.router*.ppp[*].queue.packetCapacity = 10
**.router*.ppp[*].PacketBuffer = 16000

**.host*.app[0].destPort = 1000
**.host*.app[1].destPort = 1001
**.host*.app[2].destPort = 1002
**.host*.app[3].destPort = 1003
**.host*.app[4].destPort = 1004
**.host*.app[5].destPort = 1005
**.host*.app[6].destPort = 1006
**.host*.app[0].localPort = 1000
**.host*.app[1].localPort = 1001
**.host*.app[2].localPort = 1002
**.host*.app[3].localPort = 1003
**.host*.app[4].localPort = 1004
**.host*.app[5].localPort = 1005
**.host*.app[6].localPort = 1006

*.host4.numApps = 7
*.host4.app[0].typename = "UdpBasicBurst"
*.host4.app[0].destAddresses = "host2"
*.host4.app[0].datarate = 10210
*.host4.app[0].messageLength = 1000Byte
*.host4.app[0].tos = 0
*.host4.app[0].sendInterval = 1s
*.host4.app[0].sleepDuration = 0s
*.host4.app[0].burstDuration = 0s


*.host4.app[1].typename = "UdpBasicBurst"
*.host4.app[1].destAddresses = "host3"
*.host4.app[1].datarate = 19687
*.host4.app[1].messageLength = 300Byte
*.host4.app[1].tos = 0
*.host4.app[1].sendInterval = 1s
*.host4.app[1].sleepDuration = 0s
*.host4.app[1].burstDuration = 0s


*.host4.app[2].typename = "UdpBasicBurst"
*.host4.app[2].destAddresses = "host1"
*.host4.app[2].datarate = 6251
*.host4.app[2].messageLength = 200Byte
*.host4.app[2].tos = 1
*.host4.app[2].sendInterval = 1s
*.host4.app[2].sleepDuration = 0s
*.host4.app[2].burstDuration = 0s


*.host4.app[3].typename = "UdpBasicBurst"
*.host4.app[3].destAddresses = "host7"
*.host4.app[3].datarate = 10304
*.host4.app[3].messageLength = 500Byte
*.host4.app[3].tos = 1
*.host4.app[3].sendInterval = 1s
*.host4.app[3].sleepDuration = 0s
*.host4.app[3].burstDuration = 0s


*.host4.app[4].typename = "UdpBasicBurst"
*.host4.app[4].destAddresses = "host6"
*.host4.app[4].datarate = 11462
*.host4.app[4].messageLength = 1000Byte
*.host4.app[4].tos = 0
*.host4.app[4].sendInterval = 1s
*.host4.app[4].sleepDuration = 0s
*.host4.app[4].burstDuration = 0s


*.host4.app[5].typename = "UdpBasicBurst"
*.host4.app[5].destAddresses = "host5"
*.host4.app[5].datarate = 8856
*.host4.app[5].messageLength = 300Byte
*.host4.app[5].tos = 2
*.host4.app[5].sendInterval = 1s
*.host4.app[5].sleepDuration = 0s
*.host4.app[5].burstDuration = 0s


*.host4.app[6].typename = "UdpBasicBurst"
*.host4.app[6].destAddresses = "host4"
*.host4.app[6].datarate = 10662
*.host4.app[6].messageLength = 500Byte
*.host4.app[6].tos = 0
*.host4.app[6].sendInterval = 1s
*.host4.app[6].sleepDuration = 0s
*.host4.app[6].burstDuration = 0s


*.host1.numApps = 7
*.host1.app[0].typename = "UdpBasicBurst"
*.host1.app[0].destAddresses = "host1"
*.host1.app[0].datarate = 19529
*.host1.app[0].messageLength = 500Byte
*.host1.app[0].tos = 0
*.host1.app[0].sendInterval = 1s
*.host1.app[0].sleepDuration = 0s
*.host1.app[0].burstDuration = 0s


*.host1.app[1].typename = "UdpBasicBurst"
*.host1.app[1].destAddresses = "host2"
*.host1.app[1].datarate = 8940
*.host1.app[1].messageLength = 300Byte
*.host1.app[1].tos = 1
*.host1.app[1].sendInterval = 1s
*.host1.app[1].sleepDuration = 0s
*.host1.app[1].burstDuration = 0s


*.host1.app[2].typename = "UdpBasicBurst"
*.host1.app[2].destAddresses = "host3"
*.host1.app[2].datarate = 19367
*.host1.app[2].messageLength = 200Byte
*.host1.app[2].tos = 0
*.host1.app[2].sendInterval = 1s
*.host1.app[2].sleepDuration = 0s
*.host1.app[2].burstDuration = 0s


*.host1.app[3].typename = "UdpBasicBurst"
*.host1.app[3].destAddresses = "host4"
*.host1.app[3].datarate = 14450
*.host1.app[3].messageLength = 300Byte
*.host1.app[3].tos = 0
*.host1.app[3].sendInterval = 1s
*.host1.app[3].sleepDuration = 0s
*.host1.app[3].burstDuration = 0s


*.host1.app[4].typename = "UdpBasicBurst"
*.host1.app[4].destAddresses = "host5"
*.host1.app[4].datarate = 17750
*.host1.app[4].messageLength = 500Byte
*.host1.app[4].tos = 0
*.host1.app[4].sendInterval = 1s
*.host1.app[4].sleepDuration = 0s
*.host1.app[4].burstDuration = 0s


*.host1.app[5].typename = "UdpBasicBurst"
*.host1.app[5].destAddresses = "host6"
*.host1.app[5].datarate = 14750
*.host1.app[5].messageLength = 1000Byte
*.host1.app[5].tos = 1
*.host1.app[5].sendInterval = 1s
*.host1.app[5].sleepDuration = 0s
*.host1.app[5].burstDuration = 0s


*.host1.app[6].typename = "UdpBasicBurst"
*.host1.app[6].destAddresses = "host7"
*.host1.app[6].datarate = 11650
*.host1.app[6].messageLength = 200Byte
*.host1.app[6].tos = 2
*.host1.app[6].sendInterval = 1s
*.host1.app[6].sleepDuration = 0s
*.host1.app[6].burstDuration = 0s


*.host2.numApps = 7
*.host2.app[0].typename = "UdpBasicBurst"
*.host2.app[0].destAddresses = "host1"
*.host2.app[0].datarate = 12876
*.host2.app[0].messageLength = 300Byte
*.host2.app[0].tos = 0
*.host2.app[0].sendInterval = 1s
*.host2.app[0].sleepDuration = 0s
*.host2.app[0].burstDuration = 0s


*.host2.app[1].typename = "UdpBasicBurst"
*.host2.app[1].destAddresses = "host2"
*.host2.app[1].datarate = 12786
*.host2.app[1].messageLength = 500Byte
*.host2.app[1].tos = 0
*.host2.app[1].sendInterval = 1s
*.host2.app[1].sleepDuration = 0s
*.host2.app[1].burstDuration = 0s


*.host2.app[2].typename = "UdpBasicBurst"
*.host2.app[2].destAddresses = "host3"
*.host2.app[2].datarate = 5674
*.host2.app[2].messageLength = 100Byte
*.host2.app[2].tos = 0
*.host2.app[2].sendInterval = 1s
*.host2.app[2].sleepDuration = 0s
*.host2.app[2].burstDuration = 0s


*.host2.app[3].typename = "UdpBasicBurst"
*.host2.app[3].destAddresses = "host4"
*.host2.app[3].datarate = 6785
*.host2.app[3].messageLength = 300Byte
*.host2.app[3].tos = 0
*.host2.app[3].sendInterval = 1s
*.host2.app[3].sleepDuration = 0s
*.host2.app[3].burstDuration = 0s


*.host2.app[4].typename = "UdpBasicBurst"
*.host2.app[4].destAddresses = "host5"
*.host2.app[4].datarate = 34565
*.host2.app[4].messageLength = 500Byte
*.host2.app[4].tos = 0
*.host2.app[4].sendInterval = 1s
*.host2.app[4].sleepDuration = 0s
*.host2.app[4].burstDuration = 0s


*.host2.app[5].typename = "UdpBasicBurst"
*.host2.app[5].destAddresses = "host6"
*.host2.app[5].datarate = 16543
*.host2.app[5].messageLength = 500Byte
*.host2.app[5].tos = 0
*.host2.app[5].sendInterval = 1s
*.host2.app[5].sleepDuration = 0s
*.host2.app[5].burstDuration = 0s


*.host2.app[6].typename = "UdpBasicBurst"
*.host2.app[6].destAddresses = "host7"
*.host2.app[6].datarate = 23511
*.host2.app[6].messageLength = 300Byte
*.host2.app[6].tos = 1
*.host2.app[6].sendInterval = 1s
*.host2.app[6].sleepDuration = 0s
*.host2.app[6].burstDuration = 0s


*.host3.numApps = 7
*.host3.app[0].typename = "UdpBasicBurst"
*.host3.app[0].destAddresses = "host1"
*.host3.app[0].datarate = 27654
*.host3.app[0].messageLength = 400Byte
*.host3.app[0].tos = 2
*.host3.app[0].sendInterval = 1s
*.host3.app[0].sleepDuration = 0s
*.host3.app[0].burstDuration = 0s


*.host3.app[1].typename = "UdpBasicBurst"
*.host3.app[1].destAddresses = "host2"
*.host3.app[1].datarate = 16542
*.host3.app[1].messageLength = 500Byte
*.host3.app[1].tos = 0
*.host3.app[1].sendInterval = 1s
*.host3.app[1].sleepDuration = 0s
*.host3.app[1].burstDuration = 0s


*.host3.app[2].typename = "UdpBasicBurst"
*.host3.app[2].destAddresses = "host3"
*.host3.app[2].datarate = 11987
*.host3.app[2].messageLength = 300Byte
*.host3.app[2].tos = 0
*.host3.app[2].sendInterval = 1s
*.host3.app[2].sleepDuration = 0s
*.host3.app[2].burstDuration = 0s


*.host3.app[3].typename = "UdpBasicBurst"
*.host3.app[3].destAddresses = "host4"
*.host3.app[3].datarate = 32165
*.host3.app[3].messageLength = 500Byte
*.host3.app[3].tos = 1
*.host3.app[3].sendInterval = 1s
*.host3.app[3].sleepDuration = 0s
*.host3.app[3].burstDuration = 0s


*.host3.app[4].typename = "UdpBasicBurst"
*.host3.app[4].destAddresses = "host5"
*.host3.app[4].datarate = 127654
*.host3.app[4].messageLength = 500Byte
*.host3.app[4].tos = 2
*.host3.app[4].sendInterval = 1s
*.host3.app[4].sleepDuration = 0s
*.host3.app[4].burstDuration = 0s


*.host3.app[5].typename = "UdpBasicBurst"
*.host3.app[5].destAddresses = "host6"
*.host3.app[5].datarate = 98765
*.host3.app[5].messageLength = 300Byte
*.host3.app[5].tos = 0
*.host3.app[5].sendInterval = 1s
*.host3.app[5].sleepDuration = 0s
*.host3.app[5].burstDuration = 0s


*.host3.app[6].typename = "UdpBasicBurst"
*.host3.app[6].destAddresses = "host7"
*.host3.app[6].datarate = 27654
*.host3.app[6].messageLength = 200Byte
*.host3.app[6].tos = 0
*.host3.app[6].sendInterval = 1s
*.host3.app[6].sleepDuration = 0s
*.host3.app[6].burstDuration = 0s


*.host5.numApps = 7
*.host5.app[0].typename = "UdpBasicBurst"
*.host5.app[0].destAddresses = "host1"
*.host5.app[0].datarate = 29876
*.host5.app[0].messageLength = 300Byte
*.host5.app[0].tos = 0
*.host5.app[0].sendInterval = 1s
*.host5.app[0].sleepDuration = 0s
*.host5.app[0].burstDuration = 0s


*.host5.app[1].typename = "UdpBasicBurst"
*.host5.app[1].destAddresses = "host2"
*.host5.app[1].datarate = 37635
*.host5.app[1].messageLength = 500Byte
*.host5.app[1].tos = 0
*.host5.app[1].sendInterval = 1s
*.host5.app[1].sleepDuration = 0s
*.host5.app[1].burstDuration = 0s


*.host5.app[2].typename = "UdpBasicBurst"
*.host5.app[2].destAddresses = "host3"
*.host5.app[2].datarate = 29876
*.host5.app[2].messageLength = 500Byte
*.host5.app[2].tos = 0
*.host5.app[2].sendInterval = 1s
*.host5.app[2].sleepDuration = 0s
*.host5.app[2].burstDuration = 0s


*.host5.app[3].typename = "UdpBasicBurst"
*.host5.app[3].destAddresses = "host4"
*.host5.app[3].datarate = 47634
*.host5.app[3].messageLength = 200Byte
*.host5.app[3].tos = 0
*.host5.app[3].sendInterval = 1s
*.host5.app[3].sleepDuration = 0s
*.host5.app[3].burstDuration = 0s


*.host5.app[4].typename = "UdpBasicBurst"
*.host5.app[4].destAddresses = "host5"
*.host5.app[4].datarate = 56874
*.host5.app[4].messageLength = 300Byte
*.host5.app[4].tos = 1
*.host5.app[4].sendInterval = 1s
*.host5.app[4].sleepDuration = 0s
*.host5.app[4].burstDuration = 0s


*.host5.app[5].typename = "UdpBasicBurst"
*.host5.app[5].destAddresses = "host6"
*.host5.app[5].datarate = 38765
*.host5.app[5].messageLength = 400Byte
*.host5.app[5].tos = 0
*.host5.app[5].sendInterval = 1s
*.host5.app[5].sleepDuration = 0s
*.host5.app[5].burstDuration = 0s


*.host5.app[6].typename = "UdpBasicBurst"
*.host5.app[6].destAddresses = "host7"
*.host5.app[6].datarate = 37654
*.host5.app[6].messageLength = 200Byte
*.host5.app[6].tos = 0
*.host5.app[6].sendInterval = 1s
*.host5.app[6].sleepDuration = 0s
*.host5.app[6].burstDuration = 0s


*.host6.numApps = 6
*.host6.app[0].typename = "UdpBasicBurst"
*.host6.app[0].destAddresses = "host1"
*.host6.app[0].datarate = 29873
*.host6.app[0].messageLength = 400Byte
*.host6.app[0].tos = 0
*.host6.app[0].sendInterval = 1s
*.host6.app[0].sleepDuration = 0s
*.host6.app[0].burstDuration = 0s


*.host6.app[1].typename = "UdpBasicBurst"
*.host6.app[1].destAddresses = "host2"
*.host6.app[1].datarate = 68546
*.host6.app[1].messageLength = 500Byte
*.host6.app[1].tos = 0
*.host6.app[1].sendInterval = 1s
*.host6.app[1].sleepDuration = 0s
*.host6.app[1].burstDuration = 0s


*.host6.app[2].typename = "UdpBasicBurst"
*.host6.app[2].destAddresses = "host3"
*.host6.app[2].datarate = 38765
*.host6.app[2].messageLength = 600Byte
*.host6.app[2].tos = 1
*.host6.app[2].sendInterval = 1s
*.host6.app[2].sleepDuration = 0s
*.host6.app[2].burstDuration = 0s


*.host6.app[3].typename = "UdpBasicBurst"
*.host6.app[3].destAddresses = "host4"
*.host6.app[3].datarate = 8546
*.host6.app[3].messageLength = 500Byte
*.host6.app[3].tos = 1
*.host6.app[3].sendInterval = 1s
*.host6.app[3].sleepDuration = 0s
*.host6.app[3].burstDuration = 0s


*.host6.app[4].typename = "UdpBasicBurst"
*.host6.app[4].destAddresses = "host5"
*.host6.app[4].datarate = 29875
*.host6.app[4].messageLength = 400Byte
*.host6.app[4].tos = 2
*.host6.app[4].sendInterval = 1s
*.host6.app[4].sleepDuration = 0s
*.host6.app[4].burstDuration = 0s


*.host6.app[5].typename = "UdpBasicBurst"
*.host6.app[5].destAddresses = "host7"
*.host6.app[5].datarate = 29856
*.host6.app[5].messageLength = 300Byte
*.host6.app[5].tos = 0
*.host6.app[5].sendInterval = 1s
*.host6.app[5].sleepDuration = 0s
*.host6.app[5].burstDuration = 0s


*.host7.numApps = 1
*.host7.app[0].typename = "UdpBasicBurst"
*.host7.app[0].destAddresses = "host1"
*.host7.app[0].datarate = 109856
*.host7.app[0].messageLength = 500Byte
*.host7.app[0].tos = 0
*.host7.app[0].sendInterval = 1s
*.host7.app[0].sleepDuration = 0s
*.host7.app[0].burstDuration = 0s


